ca_results/winter/rts_gmlc_export_10_43_winter_v35_N1_lines.csv
Contingency,Converged,FromBus#,ToBus#,CKT,Pij(MW),Qij(MVAr),Sij(MVA),Pji(MW),Qji(MVAr),Sji(MVA),RateA,Ploss(MW),Qloss(MVAr),Loading_%,Violation
LT_101-102_A1,True,101.0,103.0,A2,12.837118,3.762852,13.377243,-12.714654,-3.293035,13.134173,175.0,0.122464,0.469817,7.64,False
LT_101-102_A1,True,101.0,105.0,A3,-1.079073,-4.357721,4.489335,1.081936,4.368784,4.500762,175.0,0.002863,0.011063,2.57,False
LT_101-102_A1,True,102.0,104.0,A4,8.454018,8.871822,12.254781,-8.389703,-8.624307,12.031865,175.0,0.064315,0.247516,7.0,False
LT_101-102_A1,True,102.0,106.0,A5,8.21756,-9.922175,12.883239,-8.150676,10.17901,13.04016,175.0,0.066884,0.256835,7.36,False
LT_101-102_A1,True,103.0,109.0,A6,-45.813797,6.907372,46.331585,46.574332,-3.987899,46.744751,175.0,0.760535,2.919472,26.48,False
LT_101-102_A1,True,103.0,124.0,A7,-21.874813,-14.990062,26.518097,21.890727,15.658455,26.914516,400.0,0.015914,0.668393,6.63,False
LT_101-102_A1,True,104.0,109.0,A8,-24.664974,5.020924,25.17083,24.860385,-4.268229,25.224126,175.0,0.195411,0.752695,14.38,False
LT_101-102_A1,True,105.0,110.0,A9,-32.796558,-8.490616,33.877792,33.076053,9.559986,34.429909,175.0,0.279495,1.06937,19.36,False
LT_101-102_A1,True,106.0,110.0,10,-52.598457,-112.601837,124.281021,53.009366,114.392226,126.077652,175.0,0.410909,1.790389,71.02,False
LT_101-102_A1,True,107.0,108.0,11,77.78022,0.327776,77.780907,-76.737352,3.648159,76.824021,175.0,1.042868,3.975936,44.45,False
LT_101-102_A1,True,107.0,203.0,B1,148.62439,-1.541891,148.632401,-138.630923,39.850179,144.244825,175.0,9.993466,38.308289,84.93,False
LT_101-102_A1,True,108.0,109.0,1,0.06588,0.571908,0.575689,-0.062646,-0.5595,0.562996,175.0,0.003234,0.012408,0.33,False
LT_101-102_A1,True,108.0,110.0,2,0.288368,-18.295927,18.298201,-0.162661,18.77829,18.778994,175.0,0.125707,0.482363,10.46,False
LT_101-102_A1,True,109.0,111.0,14,-60.600082,1.201232,60.611988,60.682081,2.242721,60.723511,400.0,0.081999,3.443952,15.15,False
LT_101-102_A1,True,109.0,112.0,15,-88.941833,0.940617,88.946808,89.118418,6.475913,89.353398,400.0,0.176584,7.41653,22.24,False
LT_101-102_A1,True,110.0,111.0,16,-71.852715,40.156128,82.312378,71.99402,-34.221319,79.713471,400.0,0.141305,5.934809,20.58,False
LT_101-102_A1,True,110.0,112.0,17,-101.173576,40.154572,108.850739,101.420686,-29.775961,105.701293,400.0,0.24711,10.378611,27.21,False
LT_101-102_A1,True,111.0,113.0,18,-244.676285,39.573662,247.855927,248.799774,-6.585747,248.886921,500.0,4.123489,32.987915,49.57,False
LT_101-102_A1,True,111.0,114.0,19,112.000191,-7.595068,112.257423,-111.302072,13.459268,112.112903,500.0,0.698119,5.8642,22.45,False
LT_101-102_A1,True,112.0,113.0,20,-196.968094,32.781647,199.677414,199.634623,-11.449411,199.962676,500.0,2.666529,21.332235,39.94,False
LT_101-102_A1,True,112.0,123.0,21,6.428977,-9.481603,11.455677,-6.42348,9.526037,11.489407,500.0,0.005497,0.044434,2.29,False
LT_101-102_A1,True,113.0,123.0,22,117.265678,-16.766363,118.458221,-115.580709,30.092937,119.43402,500.0,1.684969,13.326573,23.69,False
LT_101-102_A1,True,113.0,215.0,B2,318.939301,-19.378752,319.527496,-307.651507,104.037199,324.76636,500.0,11.287793,84.658447,63.91,False
LT_101-102_A1,True,114.0,116.0,23,24.645226,-22.990318,33.703739,-24.590349,23.637862,34.109145,500.0,0.054877,0.647543,6.74,False
LT_101-102_A1,True,115.0,116.0,24,-99.726936,41.463306,108.00309,99.982261,-39.293051,107.426236,500.0,0.255324,2.170255,21.6,False
LT_101-102_A1,True,115.0,121.0,1,-0.904235,-8.161449,8.211389,0.905038,8.168005,8.217992,500.0,0.000803,0.006555,1.64,False
LT_101-102_A1,True,115.0,121.0,2,-0.904235,-8.161449,8.211389,0.905038,8.168005,8.217992,500.0,0.000803,0.006555,1.64,False
LT_101-102_A1,True,115.0,124.0,26,21.936375,5.996199,22.741129,-21.89073,-5.657122,22.609889,500.0,0.045645,0.339077,4.55,False
LT_101-102_A1,True,116.0,117.0,27,28.815451,-18.836819,34.426094,-28.77947,19.148651,34.567741,500.0,0.035981,0.311832,6.89,False
LT_101-102_A1,True,116.0,119.0,28,-86.875877,35.781921,93.956184,87.170913,-33.519982,93.393561,500.0,0.295036,2.26194,18.79,False
LT_101-102_A1,True,117.0,118.0,29,23.517437,5.372019,24.123194,-23.50444,-5.281042,24.090415,500.0,0.012997,0.090977,4.82,False
LT_101-102_A1,True,117.0,122.0,30,5.26203,-19.472418,20.17087,-5.244701,19.602384,20.291879,500.0,0.017329,0.129967,4.03,False
LT_101-102_A1,True,118.0,121.0,1,22.379229,-23.66674,32.572144,-22.348271,23.935036,32.746468,500.0,0.030957,0.268296,6.51,False
LT_101-102_A1,True,118.0,121.0,2,22.379229,-23.66674,32.572144,-22.348271,23.935036,32.746468,500.0,0.030957,0.268296,6.51,False
LT_101-102_A1,True,119.0,120.0,1,-84.010414,10.722432,84.691917,84.412936,-7.502256,84.745664,500.0,0.402522,3.220176,16.94,False
LT_101-102_A1,True,119.0,120.0,2,-84.010414,10.722432,84.691917,84.412936,-7.502256,84.745664,500.0,0.402522,3.220176,16.94,False
LT_101-102_A1,True,120.0,123.0,1,-113.000763,9.179978,113.373032,113.430226,-6.03058,113.590423,500.0,0.429463,3.149399,22.67,False
LT_101-102_A1,True,120.0,123.0,2,-113.000763,9.179978,113.373032,113.430226,-6.03058,113.590423,500.0,0.429463,3.149399,22.67,False
LT_101-102_A1,True,121.0,122.0,34,-5.236516,-14.157236,15.094648,5.244727,14.219275,15.15569,500.0,0.008211,0.062039,3.02,False
LT_101-102_A1,True,121.0,325.0,1,444.122894,49.846725,446.911438,-418.168055,159.954895,447.716529,500.0,25.95484,209.80162,89.38,False
LT_101-102_A1,True,123.0,217.0,B3,163.143768,-49.772949,170.567398,-159.994948,73.074221,175.892652,500.0,3.14882,23.301271,34.11,False
LT_101-102_A1,True,201.0,202.0,B1,14.080993,-30.937546,33.991264,-14.071299,30.982784,34.028434,175.0,0.009694,0.045238,19.42,False
LT_101-102_A1,True,201.0,203.0,B2,-56.62326,28.342878,63.320713,59.127739,-18.734788,62.024848,175.0,2.504479,9.60809,36.18,False
LT_101-102_A1,True,201.0,205.0,B3,23.720778,-9.744989,25.644493,-23.567226,10.338256,25.735067,175.0,0.153551,0.593266,14.65,False
LT_101-102_A1,True,202.0,204.0,B4,6.983139,12.012634,13.894876,-6.89926,-11.689828,13.573941,175.0,0.083879,0.322806,7.94,False
LT_101-102_A1,True,202.0,206.0,B5,19.374496,-11.739309,22.65353,-19.121914,12.709227,22.960227,175.0,0.252583,0.969917,12.94,False
LT_101-102_A1,True,203.0,209.0,B6,85.045334,-21.830406,87.802475,-82.312295,32.321749,88.430817,175.0,2.733039,10.491343,50.17,False
LT_101-102_A1,True,203.0,224.0,B7,-94.082985,-8.454167,94.462059,94.288638,17.091581,95.825202,400.0,0.205653,8.637414,23.62,False
LT_101-102_A1,True,204.0,209.0,B8,-29.500866,7.361403,30.405449,29.791279,-6.242774,30.43834,175.0,0.290413,1.118629,17.37,False
LT_101-102_A1,True,205.0,210.0,B9,-11.357224,-15.115918,18.907076,11.438619,15.427342,19.205335,175.0,0.081395,0.311424,10.8,False
LT_101-102_A1,True,206.0,210.0,10,-47.77562,-115.160576,124.677452,48.117423,116.649862,126.184297,175.0,0.341803,1.489286,71.24,False
LT_101-102_A1,True,207.0,208.0,11,-17.486696,23.683483,29.439631,17.646894,-23.072728,29.04761,175.0,0.160198,0.610755,16.82,False
LT_101-102_A1,True,208.0,209.0,1,-58.892105,17.730757,61.503334,60.779483,-10.488494,61.677824,175.0,1.887378,7.242262,35.14,False
LT_101-102_A1,True,208.0,210.0,2,-42.868595,-10.360314,44.102749,43.802329,13.943246,45.968012,175.0,0.933734,3.582932,25.2,False
LT_101-102_A1,True,209.0,211.0,14,-51.27375,-10.059978,52.25132,51.33601,12.674883,52.877581,400.0,0.06226,2.614905,13.06,False
LT_101-102_A1,True,209.0,212.0,15,-43.066097,-14.039953,45.296898,43.112887,16.005114,45.987876,400.0,0.04679,1.965161,11.32,False
LT_101-102_A1,True,210.0,211.0,16,-103.806648,38.444252,110.696793,104.064756,-27.603732,107.663547,400.0,0.258108,10.84052,27.67,False
LT_101-102_A1,True,210.0,212.0,17,-95.47097,33.905773,101.312927,95.687173,-24.825275,98.855092,400.0,0.216202,9.080498,25.33,False
LT_101-102_A1,True,211.0,213.0,18,-54.601254,-1.347046,54.617863,54.801068,2.945563,54.880173,500.0,0.199815,1.598517,10.92,False
LT_101-102_A1,True,211.0,214.0,19,-100.7995,16.276005,102.10508,101.387891,-11.333514,102.019376,500.0,0.588392,4.942491,20.42,False
LT_101-102_A1,True,212.0,213.0,20,-68.775955,6.948985,69.126114,69.098633,-4.367564,69.236527,500.0,0.322678,2.581421,13.83,False
LT_101-102_A1,True,212.0,223.0,21,-70.024078,1.871342,70.04908,70.691169,3.520972,70.7788,500.0,0.66709,5.392314,14.01,False
LT_101-102_A1,True,213.0,223.0,22,-40.251522,-3.574707,40.409943,40.451618,5.157284,40.779051,500.0,0.200096,1.582577,8.08,False
LT_101-102_A1,True,214.0,216.0,23,-196.815247,0.032559,196.815247,198.98397,25.55838,200.618671,500.0,2.168723,25.590939,39.36,False
LT_101-102_A1,True,215.0,216.0,24,220.934296,-29.486042,222.893219,-219.85833,38.631747,223.22656,500.0,1.075965,9.145705,44.58,False
LT_101-102_A1,True,215.0,221.0,1,-60.105133,-36.503654,70.321716,60.405952,38.960344,71.880369,500.0,0.300819,2.45669,14.06,False
LT_101-102_A1,True,215.0,221.0,2,-60.105133,-36.503654,70.321716,60.405952,38.960344,71.880369,500.0,0.300819,2.45669,14.06,False
LT_101-102_A1,True,215.0,224.0,26,94.997238,12.465271,95.811577,-94.288638,-7.201382,94.563244,500.0,0.7086,5.263889,19.16,False
LT_101-102_A1,True,216.0,217.0,27,-213.633011,-24.559446,215.04007,215.130688,37.539316,218.381348,500.0,1.497677,12.97987,43.01,False
LT_101-102_A1,True,216.0,219.0,28,247.318008,11.38097,247.579712,-245.325851,3.892239,245.356725,500.0,1.992158,15.273209,49.52,False
LT_101-102_A1,True,217.0,218.0,29,-48.201511,-71.872734,86.539444,48.354642,72.94465,87.516246,500.0,0.153131,1.071916,17.31,False
LT_101-102_A1,True,217.0,222.0,30,-6.934224,-19.207222,20.420597,6.952414,19.343643,20.555111,500.0,0.018189,0.136421,4.08,False
LT_101-102_A1,True,218.0,221.0,1,-21.077606,23.247042,31.379778,21.112011,-22.948869,31.182809,500.0,0.034405,0.298173,6.28,False
LT_101-102_A1,True,218.0,221.0,2,-21.077606,23.247042,31.379778,21.112011,-22.948869,31.182809,500.0,0.034405,0.298173,6.28,False
LT_101-102_A1,True,219.0,220.0,1,78.146568,-8.803934,78.640923,-77.808277,11.510266,78.655033,500.0,0.338291,2.706331,15.73,False
LT_101-102_A1,True,219.0,220.0,2,78.146568,-8.803934,78.640923,-77.808277,11.510266,78.655033,500.0,0.338291,2.706331,15.73,False
LT_101-102_A1,True,220.0,223.0,1,46.327068,-10.393309,47.478607,-46.253525,10.932627,47.528001,500.0,0.073543,0.539318,9.5,False
LT_101-102_A1,True,220.0,223.0,2,46.327068,-10.393309,47.478607,-46.253525,10.932627,47.528001,500.0,0.073543,0.539318,9.5,False
LT_101-102_A1,True,221.0,222.0,34,6.96408,-15.548968,17.037277,-6.952413,15.637115,17.113019,500.0,0.011666,0.088147,3.41,False
LT_101-102_A1,True,223.0,318.0,1,311.36264,-40.284962,313.957916,-297.298723,152.796299,334.265224,500.0,14.063917,112.511337,62.79,False
LT_101-102_A1,True,301.0,302.0,C1,14.855904,-37.054317,39.921425,-14.841083,37.123479,39.980126,175.0,0.01482,0.069162,22.81,False
LT_101-102_A1,True,301.0,303.0,C2,-39.29282,24.077915,46.083313,40.622665,-18.976147,44.836314,175.0,1.329845,5.101768,26.33,False
LT_101-102_A1,True,301.0,305.0,C3,-0.80012,7.085783,7.130815,0.815951,-7.024618,7.071848,175.0,0.015831,0.061165,4.07,False
LT_101-102_A1,True,302.0,304.0,C4,-7.014432,22.932995,23.981752,7.24345,-22.051626,23.210811,175.0,0.229017,0.881369,13.7,False
LT_101-102_A1,True,302.0,306.0,C5,3.669712,-0.098376,3.671031,-3.659613,0.137157,3.662182,175.0,0.010099,0.038782,2.1,False
LT_101-102_A1,True,303.0,309.0,C6,15.073495,-6.851538,16.55759,-14.982595,7.200476,16.623027,175.0,0.0909,0.348939,9.46,False
LT_101-102_A1,True,303.0,324.0,C7,-171.08728,7.266737,171.241531,171.756657,20.847067,173.017194,400.0,0.669376,28.113804,42.81,False
LT_101-102_A1,True,304.0,309.0,C8,-54.683758,15.527437,56.845535,55.685996,-11.666965,56.895063,175.0,1.002238,3.860472,32.48,False
LT_101-102_A1,True,305.0,310.0,C9,-46.333138,0.182535,46.333496,46.869769,1.870662,46.907085,175.0,0.536631,2.053197,26.48,False
LT_101-102_A1,True,306.0,310.0,10,-83.528664,-105.760803,134.767883,84.594116,110.403129,139.086359,175.0,1.065452,4.642326,77.01,False
LT_101-102_A1,True,307.0,308.0,11,-36.136448,21.97253,42.292259,36.479256,-20.665576,41.926151,175.0,0.342808,1.306955,24.17,False
LT_101-102_A1,True,308.0,309.0,1,-78.924194,11.636748,79.777451,82.227577,1.039022,82.234141,175.0,3.303383,12.675771,45.59,False
LT_101-102_A1,True,308.0,310.0,2,-67.181412,-11.977797,68.240814,69.559304,21.102268,72.689769,175.0,2.377892,9.124472,38.99,False
LT_101-102_A1,True,309.0,311.0,14,-99.872177,-8.455883,100.2295,100.100438,18.042838,101.713528,400.0,0.228261,9.586955,25.06,False
LT_101-102_A1,True,309.0,312.0,15,-135.249023,-2.061068,135.264725,135.664752,19.521648,137.062101,400.0,0.415728,17.460581,33.82,False
LT_101-102_A1,True,310.0,311.0,16,-144.8638,34.359715,148.882874,145.334524,-14.589323,146.064959,400.0,0.470724,19.770391,37.22,False
LT_101-102_A1,True,310.0,312.0,17,-181.171585,42.394943,186.065781,181.906792,-11.516253,182.270966,400.0,0.735207,30.878691,46.52,False
LT_101-102_A1,True,311.0,313.0,18,-144.459167,-26.333895,146.839783,145.87192,37.635913,150.64886,500.0,1.412752,11.302018,29.37,False
LT_101-102_A1,True,311.0,314.0,19,-100.974892,22.880224,103.534698,101.577106,-17.821621,103.128651,500.0,0.602215,5.058603,20.71,False
LT_101-102_A1,True,312.0,313.0,20,-80.876953,-40.713493,90.546509,81.398182,44.883323,92.952551,500.0,0.521229,4.169829,18.11,False
LT_101-102_A1,True,312.0,323.0,21,-236.696335,32.708492,238.945602,244.368141,29.305271,246.119051,500.0,7.671806,62.013763,47.79,False
LT_101-102_A1,True,313.0,323.0,22,-227.161713,51.415478,232.9077,233.552767,-0.86805,233.55438,500.0,6.391054,50.547428,46.58,False
LT_101-102_A1,True,314.0,316.0,23,-225.94278,0.750221,225.944016,228.79215,32.872349,231.1416,500.0,2.84937,33.62257,45.19,False
LT_101-102_A1,True,315.0,316.0,24,-35.76759,34.267406,49.533577,35.822088,-33.804171,49.253872,500.0,0.054498,0.463236,9.91,False
LT_101-102_A1,True,315.0,321.0,1,-137.768829,-59.66515,150.133865,139.16575,71.073331,156.264277,500.0,1.39692,11.408181,30.03,False
LT_101-102_A1,True,315.0,321.0,2,-137.768829,-59.66515,150.133865,139.16575,71.073331,156.264277,500.0,1.39692,11.408181,30.03,False
LT_101-102_A1,True,315.0,324.0,26,174.079269,28.126139,176.336807,-171.750657,-10.827873,172.091635,500.0,2.328613,17.298265,35.27,False
LT_101-102_A1,True,316.0,317.0,27,-187.094299,-78.068054,202.728622,188.402414,89.405051,208.539524,500.0,1.308115,11.336997,40.55,False
LT_101-102_A1,True,316.0,319.0,28,-79.625893,27.059988,84.098312,79.857326,-25.285662,83.764893,500.0,0.231434,1.774326,16.82,False
LT_101-102_A1,True,317.0,318.0,29,-164.366653,-43.301338,169.974701,164.949548,47.381599,171.61984,500.0,0.582895,4.080261,33.99,False
LT_101-102_A1,True,317.0,322.0,30,-24.036491,-40.822472,47.373276,24.245394,42.389239,48.833254,500.0,0.208902,1.566767,9.47,False
LT_101-102_A1,True,318.0,321.0,1,44.430237,-34.979485,56.547417,-44.34041,35.757984,56.962315,500.0,0.089827,0.778499,11.31,False
LT_101-102_A1,True,318.0,321.0,2,44.430237,-34.979485,56.547417,-44.34041,35.757984,56.962315,500.0,0.089827,0.778499,11.31,False
LT_101-102_A1,True,319.0,320.0,1,-97.946121,3.059548,97.993889,98.467144,1.108631,98.473384,500.0,0.521022,4.168179,19.6,False
LT_101-102_A1,True,319.0,320.0,2,-97.946121,3.059548,97.993889,98.467144,1.108631,98.473384,500.0,0.521022,4.168179,19.6,False
LT_101-102_A1,True,320.0,323.0,1,-139.496429,-1.73873,139.507263,140.123362,6.336235,140.266548,500.0,0.626932,4.597505,27.9,False
LT_101-102_A1,True,320.0,323.0,2,-139.496429,-1.73873,139.507263,140.123362,6.336235,140.266548,500.0,0.626932,4.597505,27.9,False
LT_101-102_A1,True,321.0,322.0,34,-19.663162,-32.290138,37.805988,19.75262,32.966044,38.430795,500.0,0.089458,0.675905,7.56,False
LT_101-102_A1,True,323.0,325.0,35,-418.168213,160.463821,447.898773,418.168213,-141.264242,441.384459,722.0,0.0,19.199579,62.04,False
LT_101-103_A2,True,101.0,102.0,A1,3.54316,-32.516186,32.70866,-3.538662,32.537175,32.729037,175.0,0.004498,0.020989,18.69,False
LT_101-103_A2,True,101.0,105.0,A3,8.214885,-6.440145,10.438382,-8.191926,6.528848,10.475377,175.0,0.022958,0.088703,5.96,False
LT_101-103_A2,True,102.0,104.0,A4,11.324706,9.03529,14.487423,-11.238947,-8.705248,14.216022,175.0,0.085759,0.330042,8.28,False
LT_101-103_A2,True,102.0,106.0,A5,8.885533,-9.805295,13.232404,-8.813426,10.082189,13.391303,175.0,0.072108,0.276894,7.56,False
LT_101-103_A2,True,103.0,109.0,A6,-53.175056,3.965081,53.322685,54.19656,-0.043824,54.196578,175.0,1.021504,3.921257,30.47,False
LT_101-103_A2,True,103.0,124.0,A7,-27.228207,-20.492359,34.07803,27.255002,21.617776,34.787403,400.0,0.026796,1.125417,8.52,False
LT_101-103_A2,True,104.0,109.0,A8,-21.815731,5.098128,22.403503,21.971854,-4.496767,22.427288,175.0,0.156123,0.601361,12.8,False
LT_101-103_A2,True,105.0,110.0,A9,-23.522694,-10.65123,25.821812,23.682125,11.261228,26.223239,175.0,0.159431,0.609998,14.76,False
LT_101-103_A2,True,106.0,110.0,10,-51.935707,-112.400261,123.818954,52.33692,114.148404,125.574725,175.0,0.401213,1.748144,70.75,False
LT_101-103_A2,True,107.0,108.0,11,77.369171,1.346589,77.38089,-76.336723,2.589621,76.380635,175.0,1.032449,3.93621,44.22,False
LT_101-103_A2,True,107.0,203.0,B1,149.035446,-1.492742,149.042923,-138.986604,40.013304,144.631741,175.0,10.048842,38.520561,85.17,False
LT_101-103_A2,True,108.0,109.0,1,1.392435,1.118992,1.786342,-1.386784,-1.097309,1.768405,175.0,0.005651,0.021683,1.02,False
LT_101-103_A2,True,108.0,110.0,2,-1.438813,-17.78544,17.843544,1.557886,18.242346,18.308746,175.0,0.119072,0.456905,10.2,False
LT_101-103_A2,True,109.0,111.0,14,-62.188053,-0.419699,62.189472,62.274769,4.061744,62.407087,400.0,0.086715,3.642045,15.55,False
LT_101-103_A2,True,109.0,112.0,15,-90.763428,-0.670267,90.7659,90.948145,8.428398,91.337851,400.0,0.184717,7.758131,22.69,False
LT_101-103_A2,True,110.0,111.0,16,-67.536224,39.615479,78.297684,67.664265,-34.237778,75.833226,400.0,0.12804,5.3777,19.57,False
LT_101-103_A2,True,110.0,112.0,17,-97.144249,39.464825,104.854561,97.373877,-29.820466,101.837773,400.0,0.229628,9.644359,26.21,False
LT_101-103_A2,True,111.0,113.0,18,-244.241425,38.306118,247.227097,248.348402,-5.450302,248.408201,500.0,4.106977,32.855816,49.45,False
LT_101-103_A2,True,111.0,114.0,19,114.302406,-8.130082,114.591179,-113.574193,14.247078,114.464302,500.0,0.728214,6.116996,22.92,False
LT_101-103_A2,True,112.0,113.0,20,-196.031418,31.523245,198.54982,198.670271,-10.41242,198.942944,500.0,2.638853,21.110825,39.71,False
LT_101-103_A2,True,112.0,123.0,21,7.709397,-10.131177,12.73089,-7.701378,10.195997,12.777699,500.0,0.008019,0.06482,2.55,False
LT_101-103_A2,True,113.0,123.0,22,118.233849,-16.777033,119.418213,-116.521068,30.323571,120.402152,500.0,1.712781,13.546538,23.88,False
LT_101-103_A2,True,113.0,215.0,B2,319.610748,-19.287895,320.19223,-308.275694,104.300804,325.442101,500.0,11.335054,85.012909,64.04,False
LT_101-103_A2,True,114.0,116.0,23,26.917356,-23.7864,35.921261,-26.854107,24.532749,36.373051,500.0,0.06325,0.746349,7.18,False
LT_101-103_A2,True,115.0,116.0,24,-103.745522,42.016766,111.930969,104.019569,-39.687361,111.333541,500.0,0.274048,2.329404,22.39,False
LT_101-103_A2,True,115.0,121.0,1,-1.593843,-8.0767,8.232462,1.594721,8.083867,8.239662,500.0,0.000878,0.007166,1.65,False
LT_101-103_A2,True,115.0,121.0,2,-1.593843,-8.0767,8.232462,1.594721,8.083867,8.239662,500.0,0.000878,0.007166,1.65,False
LT_101-103_A2,True,115.0,124.0,26,27.334171,12.243359,29.950905,-27.255003,-11.655249,29.642537,500.0,0.079169,0.588109,5.99,False
LT_101-103_A2,True,116.0,117.0,27,29.52384,-18.911118,35.061195,-29.486424,19.235391,35.205816,500.0,0.037416,0.324273,7.01,False
LT_101-103_A2,True,116.0,119.0,28,-89.357811,36.29089,96.446083,89.668475,-33.909135,95.865869,500.0,0.310664,2.381754,19.29,False
LT_101-103_A2,True,117.0,118.0,29,24.128082,5.297118,24.702709,-24.114476,-5.201872,24.669159,500.0,0.013607,0.095246,4.94,False
LT_101-103_A2,True,117.0,122.0,30,5.358339,-19.484257,20.207623,-5.340822,19.61564,20.329725,500.0,0.017518,0.131383,4.04,False
LT_101-103_A2,True,118.0,121.0,1,22.684246,-23.706331,32.81105,-22.652785,23.978993,32.986979,500.0,0.031461,0.272662,6.56,False
LT_101-103_A2,True,118.0,121.0,2,22.684246,-23.706331,32.81105,-22.652785,23.978993,32.986979,500.0,0.031461,0.272662,6.56,False
LT_101-103_A2,True,119.0,120.0,1,-85.259201,10.916939,85.955276,85.673771,-7.600378,86.010237,500.0,0.41457,3.316561,17.19,False
LT_101-103_A2,True,119.0,120.0,2,-85.259201,10.916939,85.955276,85.673771,-7.600378,86.010237,500.0,0.41457,3.316561,17.19,False
LT_101-103_A2,True,120.0,123.0,1,-114.261604,9.277662,114.637634,114.700707,-6.057572,114.860552,500.0,0.439103,3.22009,22.93,False
LT_101-103_A2,True,120.0,123.0,2,-114.261604,9.277662,114.637634,114.700707,-6.057572,114.860552,500.0,0.439103,3.22009,22.93,False
LT_101-103_A2,True,121.0,122.0,34,-5.332558,-14.143363,15.115253,5.340847,14.205992,15.176787,500.0,0.008289,0.062629,3.02,False
LT_101-103_A2,True,121.0,325.0,1,443.448639,49.557079,446.209137,-417.575598,159.583347,447.030452,500.0,25.873041,209.140427,89.24,False
LT_101-103_A2,True,123.0,217.0,B3,162.82106,-49.779926,170.260803,-159.683817,72.995525,175.576958,500.0,3.137243,23.215599,34.05,False
LT_101-103_A2,True,201.0,202.0,B1,14.116708,-30.945105,34.012951,-14.106976,30.990519,34.050243,175.0,0.009732,0.045415,19.44,False
LT_101-103_A2,True,201.0,203.0,B2,-56.695801,28.409851,63.415562,59.207719,-18.773219,62.112702,175.0,2.511918,9.636632,36.24,False
LT_101-103_A2,True,201.0,205.0,B3,23.757601,-9.749745,25.680367,-23.603609,10.344714,25.770981,175.0,0.153992,0.594968,14.67,False
LT_101-103_A2,True,202.0,204.0,B4,6.995318,12.022844,13.909825,-6.911278,-11.699418,13.588309,175.0,0.08404,0.323426,7.95,False
LT_101-103_A2,True,202.0,206.0,B5,19.397993,-11.741577,22.674805,-19.14489,12.713492,22.981726,175.0,0.253103,0.971915,12.96,False
LT_101-103_A2,True,203.0,209.0,B6,85.208084,-21.882797,87.973145,-82.463939,32.416772,88.606706,175.0,2.744145,10.533975,50.27,False
LT_101-103_A2,True,203.0,224.0,B7,-93.970047,-8.527173,94.356148,94.175272,17.146605,95.723497,400.0,0.205225,8.619431,23.59,False
LT_101-103_A2,True,204.0,209.0,B8,-29.488846,7.370937,30.396097,29.779102,-6.252913,30.428504,175.0,0.290256,1.118024,17.37,False
LT_101-103_A2,True,205.0,210.0,B9,-11.32084,-15.122384,18.890419,11.402074,15.433195,19.188298,175.0,0.081235,0.31081,10.79,False
LT_101-103_A2,True,206.0,210.0,10,-47.752644,-115.163788,124.671623,48.094122,116.65166,126.177076,175.0,0.341479,1.487872,71.24,False
LT_101-103_A2,True,207.0,208.0,11,-17.486696,23.69718,29.450651,17.647013,-23.085972,29.058203,175.0,0.160317,0.611208,16.83,False
LT_101-103_A2,True,208.0,209.0,1,-58.899818,17.747669,61.515594,60.788001,-10.502318,61.68857,175.0,1.888182,7.245351,35.15,False
LT_101-103_A2,True,208.0,210.0,2,-42.861004,-10.363997,44.096233,43.794467,13.945892,45.961324,175.0,0.933464,3.581895,25.2,False
LT_101-103_A2,True,209.0,211.0,14,-51.218361,-10.091677,52.203091,51.28051,12.701935,52.830198,400.0,0.062149,2.610258,13.05,False
LT_101-103_A2,True,209.0,212.0,15,-42.966171,-14.079875,45.214321,43.012794,16.038012,45.905536,400.0,0.046622,1.958137,11.3,False
LT_101-103_A2,True,210.0,211.0,16,-103.795753,38.443268,110.686241,104.053815,-27.604672,107.653214,400.0,0.258062,10.838595,27.67,False
LT_101-103_A2,True,210.0,212.0,17,-95.414154,33.893578,101.255295,95.630113,-24.823287,98.799363,400.0,0.215959,9.070291,25.31,False
LT_101-103_A2,True,211.0,213.0,18,-54.497345,-1.376515,54.514725,54.696393,2.968898,54.776909,500.0,0.199048,1.592383,10.9,False
LT_101-103_A2,True,211.0,214.0,19,-100.836967,16.27936,102.142609,101.425796,-11.333202,102.057011,500.0,0.588828,4.946157,20.43,False
LT_101-103_A2,True,212.0,213.0,20,-68.749344,6.94167,69.098907,69.071769,-4.362273,69.209383,500.0,0.322425,2.579397,13.82,False
LT_101-103_A2,True,212.0,223.0,21,-69.893555,1.843479,69.917862,70.558141,3.528597,70.646318,500.0,0.664587,5.372075,13.98,False
LT_101-103_A2,True,213.0,223.0,22,-40.119976,-3.596617,40.280869,40.318759,5.168807,40.648725,500.0,0.198783,1.57219,8.06,False
LT_101-103_A2,True,214.0,216.0,23,-196.853165,0.032148,196.853165,199.022748,25.568941,200.658479,500.0,2.169584,25.601089,39.37,False
LT_101-103_A2,True,215.0,216.0,24,221.443939,-29.524719,223.403503,-220.363035,38.712405,223.737609,500.0,1.080904,9.187686,44.68,False
LT_101-103_A2,True,215.0,221.0,1,-59.990398,-36.521122,70.232758,60.290393,38.971076,71.78911,500.0,0.299994,2.449955,14.05,False
LT_101-103_A2,True,215.0,221.0,2,-59.990398,-36.521122,70.232758,60.290393,38.971076,71.78911,500.0,0.299994,2.449955,14.05,False
LT_101-103_A2,True,215.0,224.0,26,94.882332,12.509044,95.703362,-94.175272,-7.256599,94.454434,500.0,0.70706,5.252444,19.14,False
LT_101-103_A2,True,216.0,217.0,27,-213.553375,-24.593111,214.964798,215.049996,37.563827,218.306074,500.0,1.496621,12.970716,42.99,False
LT_101-103_A2,True,216.0,219.0,28,247.704315,11.380481,247.965591,-245.705949,3.94033,245.737542,500.0,1.998366,15.32081,49.59,False
LT_101-103_A2,True,217.0,218.0,29,-48.400898,-71.825722,86.611671,48.554293,72.899485,87.589122,500.0,0.153395,1.073763,17.32,False
LT_101-103_A2,True,217.0,222.0,30,-6.965269,-19.19994,20.424316,6.983503,19.336694,20.559111,500.0,0.018234,0.136754,4.08,False
LT_101-103_A2,True,218.0,221.0,1,-21.177431,23.269636,31.463623,21.212002,-22.970025,31.266133,500.0,0.03457,0.299611,6.29,False
LT_101-103_A2,True,218.0,221.0,2,-21.177431,23.269636,31.463623,21.212002,-22.970025,31.266133,500.0,0.03457,0.299611,6.29,False
LT_101-103_A2,True,219.0,220.0,1,78.336617,-8.827992,78.832474,-77.996667,11.547591,78.846857,500.0,0.33995,2.719599,15.77,False
LT_101-103_A2,True,219.0,220.0,2,78.336617,-8.827992,78.832474,-77.996667,11.547591,78.846857,500.0,0.33995,2.719599,15.77,False
LT_101-103_A2,True,220.0,223.0,1,46.515457,-10.43071,47.670612,-46.441312,10.974442,47.720371,500.0,0.074145,0.543732,9.53,False
LT_101-103_A2,True,220.0,223.0,2,46.515457,-10.43071,47.670612,-46.441312,10.974442,47.720371,500.0,0.074145,0.543732,9.53,False
LT_101-103_A2,True,221.0,222.0,34,6.995221,-15.55571,17.056179,-6.983503,15.644247,17.132186,500.0,0.011718,0.088538,3.41,False
LT_101-103_A2,True,223.0,318.0,1,312.004028,-40.091766,314.569336,-297.884342,153.049255,334.901711,500.0,14.119686,112.957489,62.91,False
LT_101-103_A2,True,301.0,302.0,C1,14.86472,-37.056568,39.926796,-14.849889,37.12578,39.985532,175.0,0.014831,0.069212,22.82,False
...
LT_103-124_A7,False,,,,,,,,,,,,,,
LT_104-109_A8,True,101.0,102.0,A1,13.966139,-34.730888,37.433777,-13.953941,34.787811,37.482052,175.0,0.012198,0.056922,21.39,False
LT_104-109_A8,True,101.0,103.0,A2,5.665771,5.790734,8.101454,-5.604414,-5.555347,7.891219,175.0,0.061357,0.235387,4.63,False
LT_104-109_A8,True,101.0,105.0,A3,-7.873865,-2.45782,8.248553,7.889093,2.516656,8.280782,175.0,0.015228,0.058836,4.71,False
LT_104-109_A8,True,102.0,104.0,A4,33.469978,5.210813,33.873177,-33.054676,-3.61253,33.251496,175.0,0.415302,1.598283,19.36,False
LT_104-109_A8,True,102.0,106.0,A5,-2.84446,-7.163302,7.707389,2.861018,7.226884,7.772598,175.0,0.016558,0.063582,4.4,False
LT_104-109_A8,True,103.0,109.0,A6,-51.895596,9.493649,52.756821,52.883347,-5.701958,53.189855,175.0,0.987751,3.791691,30.15,False
LT_104-109_A8,True,103.0,124.0,A7,-22.903255,-15.31744,27.553278,22.92046,16.040015,27.975517,400.0,0.017204,0.722575,6.89,False
LT_104-109_A8,True,105.0,110.0,A9,-39.603718,-6.638715,40.156281,39.999288,8.152201,40.82158,175.0,0.39557,1.513486,22.95,False
LT_104-109_A8,True,106.0,110.0,10,-63.610149,-109.656693,126.770821,64.21474,112.29098,129.355313,175.0,0.604591,2.634287,72.44,False
LT_104-109_A8,True,107.0,108.0,11,77.777939,0.784318,77.781891,-76.73492,3.192192,76.801289,175.0,1.043019,3.976511,44.45,False
LT_104-109_A8,True,107.0,203.0,B1,148.626678,-1.540948,148.634659,-138.632906,39.850411,144.246795,175.0,9.993773,38.309464,84.93,False
LT_104-109_A8,True,108.0,109.0,1,-3.397995,2.076735,3.982361,3.411524,-2.024821,3.967165,175.0,0.013529,0.051914,2.28,False
LT_104-109_A8,True,108.0,110.0,2,3.749816,-19.345261,19.705336,-3.60061,19.917792,20.240624,175.0,0.149205,0.572532,11.26,False
LT_104-109_A8,True,109.0,111.0,14,-53.049843,-0.500027,53.0522,53.112836,3.145756,53.205913,400.0,0.062994,2.645728,13.26,False
LT_104-109_A8,True,109.0,112.0,15,-81.414871,-0.967078,81.420616,81.563245,7.198788,81.880312,400.0,0.148374,6.23171,20.36,False
LT_104-109_A8,True,110.0,111.0,16,-79.163963,41.255928,89.269165,79.330147,-34.276219,86.418351,400.0,0.166184,6.979709,22.32,False
LT_104-109_A8,True,110.0,112.0,17,-108.552994,41.443394,116.195129,108.834547,-29.618147,112.792701,400.0,0.281554,11.825247,29.05,False
LT_104-109_A8,True,111.0,113.0,18,-244.832443,39.005917,247.920135,248.960379,-5.98243,249.032247,500.0,4.127936,33.023487,49.58,False
LT_104-109_A8,True,111.0,114.0,19,112.389465,-7.875456,112.665054,-111.685914,13.785285,112.533451,500.0,0.703551,5.909829,22.53,False
LT_104-109_A8,True,112.0,113.0,20,-197.017303,32.206539,199.632355,199.683935,-10.873484,199.979766,500.0,2.666632,21.333055,39.93,False
LT_104-109_A8,True,112.0,123.0,21,6.619504,-9.787183,11.815531,-6.613635,9.83462,11.851579,500.0,0.005869,0.047437,2.36,False
LT_104-109_A8,True,113.0,123.0,22,117.542824,-16.76951,118.73304,-115.849917,30.158867,119.711154,500.0,1.692907,13.389357,23.75,False
LT_104-109_A8,True,113.0,215.0,B2,319.157562,-19.349266,319.74353,-307.854422,104.122826,324.986012,500.0,11.303141,84.77356,63.95,False
LT_104-109_A8,True,114.0,116.0,23,25.029078,-23.320515,34.209667,-24.972388,23.989456,34.628228,500.0,0.05669,0.668941,6.84,False
LT_104-109_A8,True,115.0,116.0,24,-100.492569,41.568512,108.750626,100.751405,-39.368405,108.169852,500.0,0.258836,2.200107,21.75,False
LT_104-109_A8,True,115.0,121.0,1,-1.038399,-8.144981,8.210907,1.039212,8.151615,8.217591,500.0,0.000812,0.006634,1.64,False
LT_104-109_A8,True,115.0,121.0,2,-1.038399,-8.144981,8.210907,1.039212,8.151615,8.217591,500.0,0.000812,0.006634,1.64,False
LT_104-109_A8,True,115.0,124.0,26,22.970329,6.412186,23.848524,-22.920461,-6.041739,23.703379,500.0,0.049868,0.370447,4.77,False
LT_104-109_A8,True,116.0,117.0,27,28.947657,-18.850704,34.544407,-28.911411,19.164836,34.686606,500.0,0.036246,0.314132,6.91,False
LT_104-109_A8,True,116.0,119.0,28,-87.395187,35.888084,94.476837,87.693457,-33.601349,93.910559,500.0,0.29827,2.286735,18.9,False
LT_104-109_A8,True,117.0,118.0,29,23.631405,5.358041,24.231216,-23.618296,-5.266276,24.198296,500.0,0.013109,0.091765,4.85,False
LT_104-109_A8,True,117.0,122.0,30,5.280005,-19.474627,20.1777,-5.262641,19.604856,20.29891,500.0,0.017364,0.130229,4.04,False
LT_104-109_A8,True,118.0,121.0,1,22.436155,-23.674124,32.616638,-22.405105,23.94323,32.791264,500.0,0.031051,0.269106,6.52,False
LT_104-109_A8,True,118.0,121.0,2,22.436155,-23.674124,32.616638,-22.405105,23.94323,32.791264,500.0,0.031051,0.269106,6.52,False
LT_104-109_A8,True,119.0,120.0,1,-84.27169,10.763102,84.956238,84.676718,-7.522879,85.010237,500.0,0.405028,3.240222,16.99,False
LT_104-109_A8,True,119.0,120.0,2,-84.27169,10.763102,84.956238,84.676718,-7.522879,85.010237,500.0,0.405028,3.240222,16.99,False
LT_104-109_A8,True,120.0,123.0,1,-113.264549,9.20051,113.637611,113.696021,-6.036387,113.856151,500.0,0.431471,3.164123,22.73,False
LT_104-109_A8,True,120.0,123.0,2,-113.264549,9.20051,113.637611,113.696021,-6.036387,113.856151,500.0,0.431471,3.164123,22.73,False
LT_104-109_A8,True,121.0,122.0,34,-5.254441,-14.154651,15.098453,5.262667,14.216799,15.159586,500.0,0.008226,0.062148,3.02,False
LT_104-109_A8,True,121.0,325.0,1,443.986145,49.78793,446.769012,-418.047905,159.87949,447.57737,500.0,25.93824,209.667419,89.35,False
LT_104-109_A8,True,123.0,217.0,B3,163.071548,-49.774475,170.498764,-159.925321,73.056561,175.821982,500.0,3.146227,23.282085,34.1,False
LT_104-109_A8,True,201.0,202.0,B1,14.083932,-30.938166,33.993046,-14.074235,30.983418,34.030226,175.0,0.009697,0.045252,19.42,False
LT_104-109_A8,True,201.0,203.0,B2,-56.629295,28.346241,63.32761,59.13431,-18.736094,62.031507,175.0,2.505015,9.610147,36.19,False
LT_104-109_A8,True,201.0,205.0,B3,23.723867,-9.745445,25.647528,-23.570279,10.338855,25.738104,175.0,0.153588,0.59341,14.66,False
LT_104-109_A8,True,202.0,204.0,B4,6.9841,12.01305,13.89572,-6.900213,-11.69021,13.574754,175.0,0.083888,0.32284,7.94,False
LT_104-109_A8,True,202.0,206.0,B5,19.376471,-11.739538,22.655338,-19.123844,12.709625,22.962055,175.0,0.252627,0.970087,12.95,False
LT_104-109_A8,True,203.0,209.0,B6,85.058708,-21.832115,87.815857,-82.324822,32.32671,88.444291,175.0,2.733886,10.494595,50.18,False
LT_104-109_A8,True,203.0,224.0,B7,-94.100952,-8.451399,94.479713,94.306682,17.092072,95.843045,400.0,0.20573,8.640673,23.62,False
LT_104-109_A8,True,204.0,209.0,B8,-29.499912,7.361783,30.404615,29.790311,-6.243211,30.437482,175.0,0.290398,1.118572,17.37,False
LT_104-109_A8,True,205.0,210.0,B9,-11.354171,-15.116517,18.905722,11.435553,15.427891,19.20395,175.0,0.081382,0.311374,10.8,False
LT_104-109_A8,True,206.0,210.0,10,-47.773689,-115.160896,124.677017,48.115465,116.650064,126.183736,175.0,0.341776,1.489167,71.24,False
LT_104-109_A8,True,207.0,208.0,11,-17.486696,23.684219,29.440224,17.646901,-23.07344,29.04818,175.0,0.160204,0.610779,16.82,False
LT_104-109_A8,True,208.0,209.0,1,-58.892815,17.731714,61.504288,60.780253,-10.489219,61.678707,175.0,1.887438,7.242496,35.15,False
LT_104-109_A8,True,208.0,210.0,2,-42.867889,-10.360559,44.102123,43.801597,13.94339,45.967358,175.0,0.933707,3.58283,25.2,False
LT_104-109_A8,True,209.0,211.0,14,-51.272667,-10.060773,52.250408,51.334925,12.675595,52.876698,400.0,0.062258,2.614822,13.06,False
LT_104-109_A8,True,209.0,212.0,15,-43.054459,-14.042984,45.28677,43.101227,16.007274,45.977697,400.0,0.046769,1.96429,11.32,False
LT_104-109_A8,True,210.0,211.0,16,-103.809204,38.445137,110.699501,104.067325,-27.604078,107.666119,400.0,0.258121,10.841059,27.67,False
LT_104-109_A8,True,210.0,212.0,17,-95.462669,33.903786,101.304436,95.678836,-24.824801,98.846904,400.0,0.216166,9.078984,25.33,False
LT_104-109_A8,True,211.0,213.0,18,-54.581867,-1.351902,54.598606,54.781539,2.949275,54.860871,500.0,0.199672,1.597373,10.92,False
LT_104-109_A8,True,211.0,214.0,19,-100.820366,16.280499,102.126396,101.409003,-11.335947,102.040627,500.0,0.588637,4.944552,20.43,False
LT_104-109_A8,True,212.0,213.0,20,-68.774872,6.949729,69.125114,69.09754,-4.36838,69.235488,500.0,0.322669,2.581349,13.83,False
LT_104-109_A8,True,212.0,223.0,21,-70.005165,1.867963,70.030083,70.671893,3.521425,70.759572,500.0,0.666728,5.389388,14.01,False
LT_104-109_A8,True,213.0,223.0,22,-40.2309,-3.578144,40.389709,40.43079,5.15909,40.758618,500.0,0.19989,1.580947,8.08,False
LT_104-109_A8,True,214.0,216.0,23,-196.836349,0.034971,196.836349,199.005545,25.561541,200.640473,500.0,2.169196,25.596512,39.37,False
LT_104-109_A8,True,215.0,216.0,24,221.063873,-29.49588,223.022964,-219.986653,38.652249,223.356495,500.0,1.07722,9.156369,44.6,False
LT_104-109_A8,True,215.0,221.0,1,-60.077644,-36.507843,70.300392,60.378266,38.962918,71.858499,500.0,0.300621,2.455075,14.06,False
LT_104-109_A8,True,215.0,221.0,2,-60.077644,-36.507843,70.300392,60.378266,38.962918,71.858499,500.0,0.300621,2.455075,14.06,False
LT_104-109_A8,True,215.0,224.0,26,95.015556,12.467795,95.830063,-94.306685,-7.201893,94.581278,500.0,0.708872,5.265903,19.17,False
LT_104-109_A8,True,216.0,217.0,27,-213.618805,-24.566225,215.026733,215.116295,37.544471,218.368055,500.0,1.49749,12.978246,43.01,False
LT_104-109_A8,True,216.0,219.0,28,247.410538,11.380844,247.67215,-245.416894,3.90376,245.44794,500.0,1.993644,15.284604,49.53,False
LT_104-109_A8,True,217.0,218.0,29,-48.24929,-71.861885,86.55706,48.402486,72.934251,87.534026,500.0,0.153195,1.072366,17.31,False
LT_104-109_A8,True,217.0,222.0,30,-6.941663,-19.20554,20.421543,6.959864,19.342042,20.556125,500.0,0.0182,0.136502,4.08,False
LT_104-109_A8,True,218.0,221.0,1,-21.101526,23.252241,31.3997,21.13597,-22.953727,31.202609,500.0,0.034444,0.298514,6.28,False
LT_104-109_A8,True,218.0,221.0,2,-21.101526,23.252241,31.3997,21.13597,-22.953727,31.202609,500.0,0.034444,0.298514,6.28,False
LT_104-109_A8,True,219.0,220.0,1,78.192093,-8.809698,78.686813,-77.853405,11.519205,78.700983,500.0,0.338688,2.709507,15.74,False
LT_104-109_A8,True,219.0,220.0,2,78.192093,-8.809698,78.686813,-77.853405,11.519205,78.700983,500.0,0.338688,2.709507,15.74,False
LT_104-109_A8,True,220.0,223.0,1,46.372196,-10.402266,47.524601,-46.298509,10.942639,47.574082,500.0,0.073687,0.540374,9.5,False
LT_104-109_A8,True,220.0,223.0,2,46.372196,-10.402266,47.524601,-46.298509,10.942639,47.574082,500.0,0.073687,0.540374,9.5,False
LT_104-109_A8,True,221.0,222.0,34,6.971542,-15.550516,17.04174,-6.959864,15.638756,17.117546,500.0,0.011679,0.088239,3.41,False
LT_104-109_A8,True,223.0,318.0,1,311.492706,-40.245838,314.081879,-297.417491,152.847561,334.394289,500.0,14.075215,112.601723,62.82,False
LT_104-109_A8,True,301.0,302.0,C1,14.857628,-37.055077,39.922771,-14.842805,37.12425,39.98148,175.0,0.014823,0.069173,22.81,False
LT_104-109_A8,True,301.0,303.0,C2,-39.296524,24.079552,46.087326,40.626592,-18.976928,44.840203,175.0,1.330068,5.102623,26.34,False
LT_104-109_A8,True,301.0,305.0,C3,-0.79823,7.084427,7.129255,0.814055,-7.023285,7.070305,175.0,0.015825,0.061142,4.07,False
LT_104-109_A8,True,302.0,304.0,C4,-7.013827,22.932524,23.981125,7.242833,-22.051198,23.210212,175.0,0.229006,0.881326,13.7,False
LT_104-109_A8,True,302.0,306.0,C5,3.670933,-0.099181,3.672272,-3.660831,0.137974,3.66343,175.0,0.010102,0.038792,2.1,False
LT_104-109_A8,True,303.0,309.0,C6,15.081604,-6.854445,16.566177,-14.990606,7.20376,16.631669,175.0,0.090998,0.349314,9.47,False
LT_104-109_A8,True,303.0,324.0,C7,-171.099274,7.270453,171.253677,171.768746,20.847368,173.029231,400.0,0.669472,28.117821,42.81,False
LT_104-109_A8,True,304.0,309.0,C8,-54.683155,15.526926,56.844814,55.685367,-11.666555,56.894363,175.0,1.002212,3.860371,32.48,False
LT_104-109_A8,True,305.0,310.0,C9,-46.331207,0.181323,46.331562,46.867792,1.871697,46.905151,175.0,0.536585,2.05302,26.48,False
LT_104-109_A8,True,306.0,310.0,10,-83.527443,-105.761841,134.767944,84.59286,110.404014,139.086298,175.0,1.065417,4.642173,77.01,False
LT_104-109_A8,True,307.0,308.0,11,-36.136448,21.972534,42.292259,36.479255,-20.665583,41.926154,175.0,0.342807,1.306951,24.17,False
LT_104-109_A8,True,308.0,309.0,1,-78.924629,11.637114,79.777939,82.228045,1.038781,82.234606,175.0,3.303415,12.675895,45.59,False
LT_104-109_A8,True,308.0,310.0,2,-67.180954,-11.978117,68.240425,69.558813,21.102459,72.689354,175.0,2.377859,9.124342,38.99,False
LT_104-109_A8,True,309.0,311.0,14,-99.872597,-8.455496,100.229881,100.100859,18.042509,101.713884,400.0,0.228262,9.587013,25.06,False
LT_104-109_A8,True,309.0,312.0,15,-135.240417,-2.064839,135.25618,135.656092,19.523186,137.053749,400.0,0.415675,17.458347,33.81,False
LT_104-109_A8,True,310.0,311.0,16,-144.866531,34.361126,148.885864,145.337273,-14.589991,146.067761,400.0,0.470741,19.771135,37.22,False
LT_104-109_A8,True,310.0,312.0,17,-181.165161,42.391773,186.058792,181.900311,-11.51548,182.264449,400.0,0.73515,30.876293,46.51,False
LT_104-109_A8,True,311.0,313.0,18,-144.44249,-26.341015,146.824661,145.854942,37.640636,150.633601,500.0,1.412453,11.299622,29.36,False
LT_104-109_A8,True,311.0,314.0,19,-100.994728,22.888411,103.555855,101.597188,-17.827751,103.14949,500.0,0.60246,5.06066,20.71,False
LT_104-109_A8,True,312.0,313.0,20,-80.876717,-40.712517,90.54586,81.397935,44.882262,92.951822,500.0,0.521218,4.169745,18.11,False
LT_104-109_A8,True,312.0,323.0,21,-236.681442,32.705261,238.930389,244.352229,29.30027,246.102657,500.0,7.670787,62.005531,47.79,False
LT_104-109_A8,True,313.0,323.0,22,-227.144501,51.411892,232.890137,233.53457,-0.87225,233.536199,500.0,6.390069,50.539642,46.58,False
LT_104-109_A8,True,314.0,316.0,23,-225.962799,0.756344,225.964066,228.812688,32.872345,231.161928,500.0,2.849889,33.628689,45.19,False
LT_104-109_A8,True,315.0,316.0,24,-35.728168,34.276543,49.511448,35.782621,-33.813696,49.231717,500.0,0.054453,0.462847,9.9,False
LT_104-109_A8,True,315.0,321.0,1,-137.794724,-59.646744,150.15033,139.191969,71.057581,156.280466,500.0,1.397245,11.410837,30.03,False
LT_104-109_A8,True,315.0,321.0,2,-137.794724,-59.646744,150.15033,139.191969,71.057581,156.280466,500.0,1.397245,11.410837,30.03,False
LT_104-109_A8,True,315.0,324.0,26,174.09166,28.128946,176.349503,-171.762713,-10.828205,172.103689,500.0,2.328946,17.300741,35.27,False
LT_104-109_A8,True,316.0,317.0,27,-187.159241,-78.036987,202.776596,188.467993,89.379504,208.587823,500.0,1.308752,11.342517,40.56,False
LT_104-109_A8,True,316.0,319.0,28,-79.542023,27.038401,84.011955,79.772988,-25.267667,83.679057,500.0,0.230965,1.770734,16.8,False
LT_104-109_A8,True,317.0,318.0,29,-164.430878,-43.27581,170.030319,165.014166,47.358829,171.675664,500.0,0.583288,4.083019,34.01,False
LT_104-109_A8,True,317.0,322.0,30,-24.037834,-40.82251,47.373989,24.246751,42.389384,48.834054,500.0,0.208917,1.566874,9.47,False
LT_104-109_A8,True,318.0,321.0,1,44.457279,-34.993866,56.577564,-44.367351,35.773242,56.992865,500.0,0.089928,0.779376,11.32,False
LT_104-109_A8,True,318.0,321.0,2,44.457279,-34.993866,56.577564,-44.367351,35.773242,56.992865,500.0,0.089928,0.779376,11.32,False
LT_104-109_A8,True,319.0,320.0,1,-97.903938,3.050544,97.951447,98.424508,1.114013,98.430812,500.0,0.52057,4.164557,19.59,False
LT_104-109_A8,True,319.0,320.0,2,-97.903938,3.050544,97.951447,98.424508,1.114013,98.430812,500.0,0.52057,4.164557,19.59,False
LT_104-109_A8,True,320.0,323.0,1,-139.453781,-1.744115,139.464691,140.08033,6.338804,140.223676,500.0,0.626549,4.59469,27.89,False
LT_104-109_A8,True,320.0,323.0,2,-139.453781,-1.744115,139.464691,140.08033,6.338804,140.223676,500.0,0.626549,4.59469,27.89,False
LT_104-109_A8,True,321.0,322.0,34,-19.661798,-32.289501,37.804737,19.751251,32.965362,38.429507,500.0,0.089452,0.675861,7.56,False
LT_104-109_A8,True,323.0,325.0,35,-418.048035,160.375946,447.755096,418.048035,-141.188681,441.24642,722.0,0.0,19.187265,62.02,False
LT_105-110_A9,True,101.0,102.0,A1,-26.667774,-25.995272,37.241432,26.691587,26.106397,37.336106,175.0,0.023813,0.111125,21.28,False
LT_105-110_A9,True,101.0,103.0,A2,6.458699,4.87353,8.091111,-6.400317,-4.649557,7.910907,175.0,0.058382,0.223973,4.62,False
LT_105-110_A9,True,101.0,105.0,A3,31.967119,5.131653,32.376389,-31.714623,-4.156099,31.985785,175.0,0.252496,0.975554,18.5,False
LT_105-110_A9,True,102.0,104.0,A4,-2.860324,11.382764,11.736642,2.92303,-11.141441,11.518499,175.0,0.062706,0.241323,6.71,False
LT_105-110_A9,True,102.0,106.0,A5,-7.159683,-8.104105,10.813767,7.204836,8.277491,10.973901,175.0,0.045153,0.173386,6.18,False
LT_105-110_A9,True,103.0,109.0,A6,-48.251415,7.241098,48.791725,49.092696,-4.011665,49.256332,175.0,0.841281,3.229433,27.88,False
LT_105-110_A9,True,103.0,124.0,A7,-25.751532,-13.962206,29.293081,25.770912,14.776172,29.706483,400.0,0.01938,0.813966,7.32,False
LT_105-110_A9,True,104.0,109.0,A8,-35.977707,7.539895,36.759289,36.391046,-5.947774,36.873897,175.0,0.413339,1.592121,21.01,False
LT_105-110_A9,True,106.0,110.0,10,-67.953964,-111.501419,130.576828,68.635483,114.470892,133.47065,175.0,0.681518,2.969473,74.62,False
LT_105-110_A9,True,107.0,108.0,11,77.242683,-1.918132,77.266495,-76.214172,5.839332,76.437542,175.0,1.028512,3.9212,44.15,False
LT_105-110_A9,True,107.0,203.0,B1,149.161942,-1.479433,149.169266,-139.096028,40.065431,144.751317,175.0,10.065913,38.585999,85.24,False
LT_105-110_A9,True,108.0,109.0,1,3.110223,-0.222889,3.118199,-3.104071,0.246492,3.113843,175.0,0.006151,0.023603,1.78,False
LT_105-110_A9,True,108.0,110.0,2,-3.279153,-19.689857,19.961046,3.431806,20.27562,20.563999,175.0,0.152653,0.585762,11.41,False
LT_105-110_A9,True,109.0,111.0,14,-65.990425,1.594524,66.009689,66.087367,2.477048,66.133773,400.0,0.096942,4.071571,16.5,False
LT_105-110_A9,True,109.0,112.0,15,-94.559097,1.470587,94.570526,94.758077,6.886567,95.007989,400.0,0.19898,8.357154,23.64,False
LT_105-110_A9,True,110.0,111.0,16,-64.75,44.294392,78.450974,64.876941,-38.962861,75.677751,400.0,0.126941,5.331531,19.61,False
LT_105-110_A9,True,110.0,112.0,17,-94.42083,44.091675,104.208305,94.64481,-34.684486,100.800068,400.0,0.223981,9.407188,26.05,False
LT_105-110_A9,True,111.0,113.0,18,-244.70372,42.672874,248.396637,248.833463,-9.63493,249.019927,500.0,4.129743,33.037945,49.68,False
LT_105-110_A9,True,111.0,114.0,19,113.73941,-6.187066,113.907562,-113.022288,12.210891,113.680005,500.0,0.717122,6.023825,22.78,False
LT_105-110_A9,True,112.0,113.0,20,-196.689407,35.860519,199.931732,199.35575,-14.529781,199.88454,500.0,2.666342,21.330738,39.99,False
LT_105-110_A9,True,112.0,123.0,21,7.286518,-8.0626,10.867331,-7.279322,8.120769,10.905751,500.0,0.007196,0.058169,2.17,False
LT_105-110_A9,True,113.0,123.0,22,117.877563,-16.773212,119.064949,-116.175044,30.238596,120.045881,500.0,1.70252,13.465384,23.81,False
LT_105-110_A9,True,113.0,215.0,B2,319.264404,-19.33481,319.849335,-307.953743,104.164774,325.093537,500.0,11.310661,84.829964,63.97,False
LT_105-110_A9,True,114.0,116.0,23,26.365444,-21.721596,34.160862,-26.308432,22.394344,34.549098,500.0,0.057013,0.672748,6.83,False
LT_105-110_A9,True,115.0,116.0,24,-102.621376,41.861626,110.831139,102.890114,-39.577356,110.239478,500.0,0.268738,2.28427,22.17,False
LT_105-110_A9,True,115.0,121.0,1,-1.403514,-8.100117,8.220811,1.404364,8.107063,8.227801,500.0,0.000851,0.006947,1.64,False
LT_105-110_A9,True,115.0,121.0,2,-1.403514,-8.100117,8.220811,1.404364,8.107063,8.227801,500.0,0.000851,0.006947,1.64,False
LT_105-110_A9,True,115.0,124.0,26,25.829363,5.207262,26.349031,-25.770913,-4.773063,26.209198,500.0,0.05845,0.434199,5.27,False
LT_105-110_A9,True,116.0,117.0,27,29.323112,-18.890091,34.880947,-29.286106,19.21081,35.024723,500.0,0.037006,0.320719,6.98,False
LT_105-110_A9,True,116.0,119.0,28,-88.573303,36.129578,95.658646,88.87898,-33.786053,95.084018,500.0,0.305677,2.343525,19.13,False
LT_105-110_A9,True,117.0,118.0,29,23.955055,5.318343,24.538324,-23.941623,-5.224319,24.504996,500.0,0.013432,0.094025,4.91,False
LT_105-110_A9,True,117.0,122.0,30,5.33105,-19.480902,20.19717,-5.313586,19.611881,20.318959,500.0,0.017464,0.13098,4.04,False
LT_105-110_A9,True,118.0,121.0,1,22.59782,-23.695105,32.743237,-22.566503,23.966524,32.918708,500.0,0.031318,0.271419,6.55,False
LT_105-110_A9,True,118.0,121.0,2,22.59782,-23.695105,32.743237,-22.566503,23.966524,32.918708,500.0,0.031318,0.271419,6.55,False
LT_105-110_A9,True,119.0,120.0,1,-84.864449,10.855421,85.555916,85.275191,-7.569484,85.610486,500.0,0.410742,3.285937,17.11,False
LT_105-110_A9,True,119.0,120.0,2,-84.864449,10.855421,85.555916,85.275191,-7.569484,85.610486,500.0,0.410742,3.285937,17.11,False
LT_105-110_A9,True,120.0,123.0,1,-113.863014,9.246906,114.237869,114.299058,-6.049248,114.459024,500.0,0.436044,3.197658,22.85,False
LT_105-110_A9,True,120.0,123.0,2,-113.863014,9.246906,114.237869,114.299058,-6.049248,114.459024,500.0,0.436044,3.197658,22.85,False
LT_105-110_A9,True,121.0,122.0,34,-5.305345,-14.147298,15.109359,5.313611,14.209758,15.170752,500.0,0.008267,0.062461,3.02,False
LT_105-110_A9,True,121.0,325.0,1,443.629547,49.634735,446.397552,-417.734575,159.682968,447.214519,500.0,25.894972,209.317703,89.28,False
LT_105-110_A9,True,123.0,217.0,B3,162.856262,-49.779514,170.294342,-159.717754,73.004473,175.611543,500.0,3.138508,23.224958,34.06,False
LT_105-110_A9,True,201.0,202.0,B1,14.119962,-30.945795,34.014931,-14.110227,30.991226,34.052233,175.0,0.009735,0.045431,19.44,False
LT_105-110_A9,True,201.0,203.0,B2,-56.702244,28.422031,63.426781,59.215056,-18.781969,62.122341,175.0,2.512812,9.640062,36.24,False
LT_105-110_A9,True,201.0,205.0,B3,23.76079,-9.750013,25.683418,-23.606761,10.345127,25.774033,175.0,0.154029,0.595113,14.68,False
LT_105-110_A9,True,202.0,204.0,B4,6.996544,12.024962,13.912272,-6.912477,-11.701433,13.590654,175.0,0.084067,0.32353,7.95,False
LT_105-110_A9,True,202.0,206.0,B5,19.400021,-11.741672,22.676586,-19.146874,12.713755,22.983523,175.0,0.253147,0.972084,12.96,False
LT_105-110_A9,True,203.0,209.0,B6,85.222992,-21.894953,87.990608,-82.477645,32.433544,88.625598,175.0,2.745347,10.538591,50.28,False
LT_105-110_A9,True,203.0,224.0,B7,-93.882874,-8.558581,94.272179,94.087742,17.163041,95.640332,400.0,0.204868,8.60446,23.57,False
LT_105-110_A9,True,204.0,209.0,B8,-29.487648,7.372942,30.395422,29.777895,-6.254953,30.427742,175.0,0.290247,1.117989,17.37,False
LT_105-110_A9,True,205.0,210.0,B9,-11.31769,-15.122797,18.888861,11.39891,15.433551,19.186704,175.0,0.08122,0.310754,10.79,False
LT_105-110_A9,True,206.0,210.0,10,-47.75066,-115.163925,124.670982,48.092111,116.651676,126.176324,175.0,0.341451,1.487751,71.24,False
LT_105-110_A9,True,207.0,208.0,11,-17.486696,23.699514,29.45253,17.647033,-23.088229,29.060009,175.0,0.160337,0.611285,16.83,False
LT_105-110_A9,True,208.0,209.0,1,-58.900307,17.750435,61.516865,60.788577,-10.504747,61.689552,175.0,1.88827,7.245688,35.15,False
LT_105-110_A9,True,208.0,210.0,2,-42.860531,-10.364507,44.095898,43.793982,13.946353,45.961001,175.0,0.933451,3.581846,25.2,False
LT_105-110_A9,True,209.0,211.0,14,-51.202946,-10.099833,52.189541,51.265063,12.70877,52.816849,400.0,0.062118,2.608936,13.05,False
LT_105-110_A9,True,209.0,212.0,15,-42.967255,-14.084151,45.216679,43.013882,16.042517,45.90813,400.0,0.046628,1.958366,11.3,False
LT_105-110_A9,True,210.0,211.0,16,-103.78447,38.440277,110.674606,104.042478,-27.60394,107.642067,400.0,0.258008,10.836337,27.67,False
LT_105-110_A9,True,210.0,212.0,17,-95.419785,33.89537,101.261208,95.635769,-24.824006,98.805018,400.0,0.215985,9.071364,25.32,False
LT_105-110_A9,True,211.0,213.0,18,-54.520206,-1.371849,54.537464,54.719423,2.965577,54.799725,500.0,0.199216,1.593729,10.91,False
LT_105-110_A9,True,211.0,214.0,19,-100.787315,16.267128,102.091637,101.375558,-11.32589,102.006272,500.0,0.588243,4.941238,20.42,False
LT_105-110_A9,True,212.0,213.0,20,-68.743607,6.937121,69.092743,69.065973,-4.358188,69.203341,500.0,0.322367,2.578933,13.82,False
LT_105-110_A9,True,212.0,223.0,21,-69.906044,1.844239,69.930367,70.570867,3.529746,70.659085,500.0,0.664823,5.373985,13.99,False
LT_105-110_A9,True,213.0,223.0,22,-40.137211,-3.593747,40.297775,40.336165,5.167296,40.665799,500.0,0.198954,1.573549,8.06,False
LT_105-110_A9,True,214.0,216.0,23,-196.802917,0.024857,196.802917,198.971381,25.563008,200.606774,500.0,2.168463,25.587866,39.36,False
LT_105-110_A9,True,215.0,216.0,24,221.26474,-29.511127,223.224091,-220.185574,38.68404,223.557916,500.0,1.079166,9.172913,44.64,False
LT_105-110_A9,True,215.0,221.0,1,-60.017387,-36.517014,70.253677,60.317576,38.968551,71.81057,500.0,0.300188,2.451538,14.05,False
LT_105-110_A9,True,215.0,221.0,2,-60.017387,-36.517014,70.253677,60.317576,38.968551,71.81057,500.0,0.300188,2.451538,14.05,False
LT_105-110_A9,True,215.0,224.0,26,94.793541,12.516119,95.616257,-94.087741,-7.273036,94.368427,500.0,0.7058,5.243083,19.12,False
LT_105-110_A9,True,216.0,217.0,27,-213.533371,-24.595469,214.94519,215.029718,37.56381,218.286096,500.0,1.496347,12.968342,42.99,False
LT_105-110_A9,True,216.0,219.0,28,247.558212,11.380655,247.819656,-245.562195,3.922144,245.593516,500.0,1.996017,15.302799,49.56,False
LT_105-110_A9,True,217.0,218.0,29,-48.353996,-71.833443,86.591873,48.507319,72.906699,87.569097,500.0,0.153322,1.073256,17.32,False
LT_105-110_A9,True,217.0,222.0,30,-6.957964,-19.201157,20.42297,6.976186,19.337822,20.557688,500.0,0.018222,0.136665,4.08,False
LT_105-110_A9,True,218.0,221.0,1,-21.153944,23.266024,31.445145,21.188478,-22.966728,31.247755,500.0,0.034534,0.299295,6.29,False
LT_105-110_A9,True,218.0,221.0,2,-21.153944,23.266024,31.445145,21.188478,-22.966728,31.247755,500.0,0.034534,0.299295,6.29,False
LT_105-110_A9,True,219.0,220.0,1,78.26474,-8.818894,78.760025,-77.925418,11.533472,78.774309,500.0,0.339322,2.714577,15.75,False
LT_105-110_A9,True,219.0,220.0,2,78.26474,-8.818894,78.760025,-77.925418,11.533472,78.774309,500.0,0.339322,2.714577,15.75,False
LT_105-110_A9,True,220.0,223.0,1,46.44421,-10.416563,47.598,-46.370293,10.958624,47.647618,500.0,0.073917,0.542061,9.52,False
LT_105-110_A9,True,220.0,223.0,2,46.44421,-10.416563,47.598,-46.370293,10.958624,47.647618,500.0,0.073917,0.542061,9.52,False
LT_105-110_A9,True,221.0,222.0,34,6.987894,-15.554658,17.052216,-6.976187,15.64311,17.128166,500.0,0.011707,0.088452,3.41,False
LT_105-110_A9,True,223.0,318.0,1,311.831909,-40.143673,314.405212,-297.727201,152.981335,334.7309,500.0,14.104708,112.837662,62.88,False
LT_105-110_A9,True,301.0,302.0,C1,14.862331,-37.056065,39.925442,-14.847503,37.125263,39.984166,175.0,0.014828,0.069199,22.81,False
...
LT_106-110_10,True,101.0,102.0,A1,37.658638,14.147059,40.228252,-37.571794,-13.741789,40.005956,175.0,0.086844,0.40527,22.99,False
LT_106-110_10,True,101.0,103.0,A2,-0.683897,8.597833,8.62499,0.759268,-8.308684,8.343304,175.0,0.07537,0.289149,4.93,False
LT_106-110_10,True,101.0,105.0,A3,-25.216696,27.07073,36.996033,25.556613,-25.757414,36.284774,175.0,0.339917,1.313316,21.14,False
LT_106-110_10,True,102.0,104.0,A4,-13.843104,15.983059,21.144495,14.023739,-15.28789,20.745718,175.0,0.180635,0.695169,12.08,False
LT_106-110_10,True,102.0,106.0,A5,68.086472,91.13308,113.758537,-60.749128,-62.957682,87.487863,175.0,7.337344,28.175398,65.0,False
LT_106-110_10,True,103.0,109.0,A6,-49.94754,13.048935,51.62394,50.902334,-9.383759,51.760048,175.0,0.954794,3.665176,29.5,False
LT_106-110_10,True,103.0,124.0,A7,-31.214991,-16.132898,35.137531,31.243121,17.314355,35.720015,400.0,0.02813,1.181456,8.78,False
LT_106-110_10,True,104.0,109.0,A8,-47.078415,11.628767,48.493355,47.811465,-8.805165,48.615503,175.0,0.73305,2.823602,27.71,False
LT_106-110_10,True,105.0,110.0,A9,-57.271236,21.587711,61.204765,58.253409,-17.829833,60.920954,175.0,0.982173,3.757879,34.97,False
LT_106-110_10,True,107.0,108.0,11,79.217743,17.204792,81.064514,-78.08039,-12.868636,79.133742,175.0,1.137352,4.336156,46.32,False
LT_106-110_10,True,107.0,203.0,B1,147.186874,-1.692294,147.196609,-137.385846,39.2629,142.88613,175.0,9.801028,37.570606,84.11,False
LT_106-110_10,True,108.0,109.0,1,3.874115,-1.51476,4.159719,-3.866704,1.543197,4.163275,175.0,0.007411,0.028437,2.38,False
LT_106-110_10,True,108.0,110.0,2,-2.176828,0.289842,2.196039,2.181659,-0.271305,2.198463,175.0,0.004831,0.018538,1.25,False
LT_106-110_10,True,109.0,111.0,14,-72.086311,4.933235,72.254913,72.205094,0.055656,72.205116,400.0,0.118783,4.988891,18.06,False
LT_106-110_10,True,109.0,112.0,15,-100.930634,4.868196,101.047966,101.162947,4.888985,101.281015,400.0,0.232314,9.75718,25.26,False
LT_106-110_10,True,110.0,111.0,16,-59.354927,3.367738,59.450386,59.435411,0.012588,59.435412,400.0,0.080484,3.380326,14.86,False
LT_106-110_10,True,110.0,112.0,17,-88.183685,2.950724,88.233032,88.360966,4.49508,88.475229,400.0,0.177281,7.445804,22.06,False
LT_106-110_10,True,111.0,113.0,18,-246.515198,17.73914,247.152634,250.702292,15.757614,251.197017,500.0,4.187094,33.496754,49.43,False
LT_106-110_10,True,111.0,114.0,19,114.874695,-17.807383,116.246712,-114.111983,24.214165,116.652777,500.0,0.762712,6.406783,23.25,False
LT_106-110_10,True,112.0,113.0,20,-197.551651,10.909338,197.852631,200.219168,10.430796,200.49069,500.0,2.667517,21.340134,39.57,False
LT_106-110_10,True,112.0,123.0,21,8.027736,-20.293406,21.82354,-8.001536,20.50519,22.011074,500.0,0.0262,0.211784,4.36,False
LT_106-110_10,True,113.0,123.0,22,120.781311,-16.800758,121.944214,-118.994267,30.934649,122.949535,500.0,1.787044,14.13389,24.39,False
LT_106-110_10,True,113.0,215.0,B2,322.175751,-18.937281,322.731842,-310.659225,105.31122,328.023791,500.0,11.516525,86.37394,64.55,False
LT_106-110_10,True,114.0,116.0,23,27.455149,-33.896862,43.620895,-27.36029,35.016194,44.437814,500.0,0.094859,1.119332,8.72,False
LT_106-110_10,True,115.0,116.0,24,-106.66658,42.421001,114.792419,106.954688,-39.972085,114.180002,500.0,0.288108,2.448916,22.96,False
LT_106-110_10,True,115.0,121.0,1,-2.131358,-8.010464,8.289162,2.132337,8.018461,8.297143,500.0,0.000979,0.007997,1.66,False
LT_106-110_10,True,115.0,121.0,2,-2.131358,-8.010464,8.289162,2.132337,8.018461,8.297143,500.0,0.000979,0.007997,1.66,False
LT_106-110_10,True,115.0,124.0,26,31.330256,7.977784,32.330017,-31.243125,-7.330531,32.091581,500.0,0.08713,0.647253,6.47,False
LT_106-110_10,True,116.0,117.0,27,30.003027,-18.961216,35.492386,-29.964621,19.294068,35.639017,500.0,0.038406,0.332852,7.1,False
LT_106-110_10,True,116.0,119.0,28,-92.26593,36.892303,99.368225,92.595454,-34.365953,98.767084,500.0,0.329524,2.526351,19.87,False
LT_106-110_10,True,117.0,118.0,29,24.541136,5.246447,25.095669,-24.527107,-5.148249,25.061593,500.0,0.014028,0.098198,5.02,False
LT_106-110_10,True,117.0,122.0,30,5.423484,-19.492266,20.232712,-5.405837,19.62462,20.355559,500.0,0.017647,0.132354,4.05,False
LT_106-110_10,True,118.0,121.0,1,22.890562,-23.733145,32.973324,-22.858757,24.008791,33.150336,500.0,0.031805,0.275646,6.59,False
LT_106-110_10,True,118.0,121.0,2,22.890562,-23.733145,32.973324,-22.858757,24.008791,33.150336,500.0,0.031805,0.275646,6.59,False
LT_106-110_10,True,119.0,120.0,1,-86.722687,11.145264,87.435928,87.151605,-7.71392,87.492324,500.0,0.428918,3.431343,17.49,False
LT_106-110_10,True,119.0,120.0,2,-86.722687,11.145264,87.435928,87.151605,-7.71392,87.492324,500.0,0.428918,3.431343,17.49,False
LT_106-110_10,True,120.0,123.0,1,-115.739426,9.39068,116.119766,116.189964,-6.086734,116.349285,500.0,0.450538,3.303946,23.22,False
LT_106-110_10,True,120.0,123.0,2,-115.739426,9.39068,116.119766,116.189964,-6.086734,116.349285,500.0,0.450538,3.303946,23.22,False
LT_106-110_10,True,121.0,122.0,34,-5.39752,-14.133959,15.129508,5.405863,14.196995,15.191379,500.0,0.008343,0.063036,3.03,False
LT_106-110_10,True,121.0,325.0,1,442.85025,49.300686,445.585999,-417.049673,159.253971,446.421614,500.0,25.800577,208.554657,89.12,False
LT_106-110_10,True,123.0,217.0,B3,162.615891,-49.782326,170.065308,-159.486017,72.943394,175.375392,500.0,3.129874,23.161068,34.01,False
LT_106-110_10,True,201.0,202.0,B1,14.029811,-30.92671,33.960228,-14.020171,30.971695,33.997222,175.0,0.00964,0.044985,19.41,False
LT_106-110_10,True,201.0,203.0,B2,-56.520885,28.189972,63.160789,59.012718,-18.630394,61.883702,175.0,2.491833,9.559578,36.09,False
LT_106-110_10,True,201.0,205.0,B3,23.669579,-9.739744,25.595146,-23.516633,10.33067,25.685692,175.0,0.152946,0.590926,14.63,False
LT_106-110_10,True,202.0,204.0,B4,6.964608,11.986856,13.863279,-6.881074,-11.665377,13.543641,175.0,0.083534,0.321479,7.92,False
LT_106-110_10,True,202.0,206.0,B5,19.341902,-11.737121,22.624525,-19.09003,12.704308,22.930955,175.0,0.251872,0.967187,12.93,False
LT_106-110_10,True,203.0,209.0,B6,84.811424,-21.685917,87.540031,-82.096016,32.109582,88.152034,175.0,2.715408,10.423665,50.02,False
LT_106-110_10,True,203.0,224.0,B7,-94.979141,-8.113636,95.325073,95.188467,16.905306,96.677989,400.0,0.209325,8.79167,23.83,False
LT_106-110_10,True,204.0,209.0,B8,-29.519051,7.337081,30.417219,29.809641,-6.21777,30.451196,175.0,0.29059,1.119312,17.38,False
LT_106-110_10,True,205.0,210.0,B9,-11.407816,-15.10832,18.931446,11.489445,15.420639,19.230274,175.0,0.081629,0.312319,10.82,False
LT_106-110_10,True,206.0,210.0,10,-47.807503,-115.157463,124.686798,48.149755,116.648707,126.195561,175.0,0.342253,1.491244,71.25,False
LT_106-110_10,True,207.0,208.0,11,-17.486696,23.653643,29.41563,17.646636,-23.043874,29.024539,175.0,0.159939,0.609769,16.81,False
LT_106-110_10,True,208.0,209.0,1,-58.883034,17.695042,61.48436,60.769125,-10.457716,61.66239,175.0,1.886091,7.237326,35.13,False
LT_106-110_10,True,208.0,210.0,2,-42.877411,-10.353424,44.109703,43.811419,13.93741,45.974905,175.0,0.934009,3.583986,25.21,False
LT_106-110_10,True,209.0,211.0,14,-51.448906,-9.965496,52.405159,51.511523,12.595411,53.029062,400.0,0.062617,2.629915,13.1,False
LT_106-110_10,True,209.0,212.0,15,-43.115215,-13.976401,45.323963,43.162053,15.943605,46.012622,400.0,0.046838,1.967203,11.33,False
LT_106-110_10,True,210.0,211.0,16,-103.917381,38.472462,110.810432,104.176013,-27.609928,107.772677,400.0,0.258632,10.862534,27.7,False
...